<connections>
  <connection from="north_in" to="east_out" fromLane="2" toLane="0" tl="SmartWolfie" linkIndex="0" contPos="0"/>
  <connection from="north_in" to="east_out" fromLane="2" toLane="1" tl="SmartWolfie" linkIndex="1" contPos="0"/>
  <connection from="north_in" to="east_out" fromLane="2" toLane="2" tl="SmartWolfie" linkIndex="2" contPos="0"/>
  <connection from="north_in" to="south_out" fromLane="1" toLane="0" tl="SmartWolfie" linkIndex="3" contPos="0"/>
  <connection from="north_in" to="south_out" fromLane="1" toLane="1" tl="SmartWolfie" linkIndex="4" contPos="0"/>
  <connection from="north_in" to="south_out" fromLane="1" toLane="2" tl="SmartWolfie" linkIndex="5" contPos="0"/>
  <connection from="north_in" to="west_out" fromLane="0" toLane="0" tl="SmartWolfie" linkIndex="6" contPos="0"/>
  <connection from="north_in" to="west_out" fromLane="0" toLane="1" tl="SmartWolfie" linkIndex="7" contPos="0"/>
  <connection from="north_in" to="west_out" fromLane="0" toLane="2" tl="SmartWolfie" linkIndex="8" contPos="0"/>

  <connection from="east_in" to="south_out" fromLane="2" toLane="0" tl="SmartWolfie" linkIndex="9" contPos="0"/>
  <connection from="east_in" to="south_out" fromLane="2" toLane="1" tl="SmartWolfie" linkIndex="10" contPos="0"/>
  <connection from="east_in" to="south_out" fromLane="2" toLane="2" tl="SmartWolfie" linkIndex="11" contPos="0"/>
  <connection from="east_in" to="west_out" fromLane="1" toLane="0" tl="SmartWolfie" linkIndex="12" contPos="0"/>
  <connection from="east_in" to="west_out" fromLane="1" toLane="1" tl="SmartWolfie" linkIndex="13" contPos="0"/>
  <connection from="east_in" to="west_out" fromLane="1" toLane="2" tl="SmartWolfie" linkIndex="14" contPos="0"/>
  <connection from="east_in" to="north_out" fromLane="0" toLane="0" tl="SmartWolfie" linkIndex="15" contPos="0"/>
  <connection from="east_in" to="north_out" fromLane="0" toLane="1" tl="SmartWolfie" linkIndex="16" contPos="0"/>
  <connection from="east_in" to="north_out" fromLane="0" toLane="2" tl="SmartWolfie" linkIndex="17" contPos="0"/>

  <connection from="south_in" to="west_out" fromLane="2" toLane="0" tl="SmartWolfie" linkIndex="18" contPos="0"/>
  <connection from="south_in" to="west_out" fromLane="2" toLane="1" tl="SmartWolfie" linkIndex="19" contPos="0"/>
  <connection from="south_in" to="west_out" fromLane="2" toLane="2" tl="SmartWolfie" linkIndex="20" contPos="0"/>
  <connection from="south_in" to="north_out" fromLane="1" toLane="0" tl="SmartWolfie" linkIndex="21" contPos="0"/>
  <connection from="south_in" to="north_out" fromLane="1" toLane="1" tl="SmartWolfie" linkIndex="22" contPos="0"/>
  <connection from="south_in" to="north_out" fromLane="1" toLane="2" tl="SmartWolfie" linkIndex="23" contPos="0"/>
  <connection from="south_in" to="east_out" fromLane="0" toLane="0" tl="SmartWolfie" linkIndex="24" contPos="0"/>
  <connection from="south_in" to="east_out" fromLane="0" toLane="1" tl="SmartWolfie" linkIndex="25" contPos="0"/>
  <connection from="south_in" to="east_out" fromLane="0" toLane="2" tl="SmartWolfie" linkIndex="26" contPos="0"/>

  <connection from="west_in" to="north_out" fromLane="2" toLane="0" tl="SmartWolfie" linkIndex="27" contPos="0"/>
  <connection from="west_in" to="north_out" fromLane="2" toLane="1" tl="SmartWolfie" linkIndex="28" contPos="0"/>
  <connection from="west_in" to="north_out" fromLane="2" toLane="2" tl="SmartWolfie" linkIndex="29" contPos="0"/>
  <connection from="west_in" to="east_out" fromLane="1" toLane="0" tl="SmartWolfie" linkIndex="30" contPos="0"/>
  <connection from="west_in" to="east_out" fromLane="1" toLane="1" tl="SmartWolfie" linkIndex="31" contPos="0"/>
  <connection from="west_in" to="east_out" fromLane="1" toLane="2" tl="SmartWolfie" linkIndex="32" contPos="0"/>
  <connection from="west_in" to="south_out" fromLane="0" toLane="0" tl="SmartWolfie" linkIndex="33" contPos="0"/>
  <connection from="west_in" to="south_out" fromLane="0" toLane="1" tl="SmartWolfie" linkIndex="34" contPos="0"/>
  <connection from="west_in" to="south_out" fromLane="0" toLane="2" tl="SmartWolfie" linkIndex="35" contPos="0"/>

  <connection from="north_in" to="north_out" fromLane="2" toLane="0" tl="SmartWolfie" linkIndex="36" contPos="0"/>
  <connection from="east_in" to="east_out" fromLane="2" toLane="0" tl="SmartWolfie" linkIndex="37" contPos="0"/>
  <connection from="south_in" to="south_out" fromLane="2" toLane="0" tl="SmartWolfie" linkIndex="38" contPos="0"/>
  <connection from="west_in" to="west_out" fromLane="2" toLane="0" tl="SmartWolfie" linkIndex="39" contPos="0"/>


</connections>