<net>
  <edge function="normal" id="east_in" numLanes="3" from="east_input" to="SmartWolfie" width="3.75" >
    <lane index="0" allow="custom2" shape="250.0,10 15,10" speed="40.0"/>
    <lane index="1" allow="custom1" shape="250.0,6.25 15,6.25" speed="40.0"/>
    <lane index="2" allow="private" shape="250.0,2.5 15,2.5" speed="40.0"/>
  </edge>

  <edge function="normal" id="east_out" numLanes="3" from="SmartWolfie" to="east_input" width="3.75" speed="40.0">
    <lane index="0"  shape="15,-10 250,-10" speed="40.0"/>
    <lane index="1"  shape="15,-6.25 250,-6.25" speed="40.0"/>
    <lane index="2"  shape="15,-2.5 250,-2.5" speed="40.0"/>
  </edge>

  <edge function="normal" id="south_in" numLanes="3" from="south_input" to="SmartWolfie" width="3.75" >
    <lane index="0" allow="custom2" shape="10,-250 10,-15" speed="40.0"/>
    <lane index="1" allow="custom1" shape="6.25,-250 6.25,-15" speed="40.0"/>
    <lane index="2" allow="private" shape="2.5,-250 2.5,-15" speed="40.0"/>
  </edge>

  <edge function="normal" id="south_out" numLanes="3" from="SmartWolfie" to="south_input" width="3.75" speed="40.0">
    <lane index="0"  shape="-10,-15 -10,-250" speed="40.0"/>
    <lane index="1"  shape="-6.25,-15 -6.25,-250" speed="40.0"/>
    <lane index="2"  shape="-2.5,-15 -2.5,-250" speed="40.0"/>
  </edge>

  <edge function="normal" id="west_in" numLanes="3" from="west_input" to="SmartWolfie" width="3.75" >
    <lane index="0" allow="custom2" shape="-250.0,-10 -15,-10" speed="40.0"/>
    <lane index="1" allow="custom1" shape="-250.0,-6.25 -15,-6.25" speed="40.0"/>
    <lane index="2" allow="private" shape="-250.0,-2.5 -15,-2.5" speed="40.0"/>
  </edge>

  <edge function="normal" id="west_out" numLanes="3" from="SmartWolfie" to="west_input" width="3.75" speed="40.0">
    <lane index="0"  shape="-15,10 -250,10" speed="40.0"/>
    <lane index="1"  shape="-15,6.25 -250,6.25" speed="40.0"/>
    <lane index="2"  shape="-15,2.5 -250,2.5" speed="40.0"/>
  </edge>

  <edge function="normal" id="north_in" numLanes="3" from="north_input" to="SmartWolfie" width="3.75" >
    <lane index="0" allow="custom2" shape="-10,250 -10,15" speed="40.0"/>
    <lane index="1" allow="custom1" shape="-6.25,250 -6.25,15" speed="40.0"/>
    <lane index="2" allow="private" shape="-2.5,250 -2.5,15" speed="40.0"/>
  </edge>

  <edge function="normal" id="north_out" numLanes="3" from="SmartWolfie" to="north_input" width="3.75" speed="40.0">
    <lane index="0"  shape="10,15 10,250" speed="40.0"/>
    <lane index="1"  shape="6.25,15 6.25,250" speed="40.0"/>
    <lane index="2"  shape="2.5,15 2.5,250" speed="40.0"/>
  </edge>
</net>